DEPTH = 2048;
WIDTH = 10;
ADDRESS_RADIX = HEX;
DATA_RADIX = HEX;
CONTENT BEGIN
  0 : 200;
  1 : 201;
  2 : 203;
  3 : 204;
  4 : 206;
  5 : 207;
  6 : 209;
  7 : 20A;
  8 : 20C;
  9 : 20E;
  A : 20F;
  B : 211;
  C : 212;
  D : 214;
  E : 215;
  F : 217;
  10 : 219;
  11 : 21A;
  12 : 21C;
  13 : 21D;
  14 : 21F;
  15 : 220;
  16 : 222;
  17 : 224;
  18 : 225;
  19 : 227;
  1A : 228;
  1B : 22A;
  1C : 22B;
  1D : 22D;
  1E : 22F;
  1F : 230;
  20 : 232;
  21 : 233;
  22 : 235;
  23 : 236;
  24 : 238;
  25 : 239;
  26 : 23B;
  27 : 23D;
  28 : 23E;
  29 : 240;
  2A : 241;
  2B : 243;
  2C : 244;
  2D : 246;
  2E : 247;
  2F : 249;
  30 : 24B;
  31 : 24C;
  32 : 24E;
  33 : 24F;
  34 : 251;
  35 : 252;
  36 : 254;
  37 : 255;
  38 : 257;
  39 : 258;
  3A : 25A;
  3B : 25C;
  3C : 25D;
  3D : 25F;
  3E : 260;
  3F : 262;
  40 : 263;
  41 : 265;
  42 : 266;
  43 : 268;
  44 : 269;
  45 : 26B;
  46 : 26D;
  47 : 26E;
  48 : 270;
  49 : 271;
  4A : 273;
  4B : 274;
  4C : 276;
  4D : 277;
  4E : 279;
  4F : 27A;
  50 : 27C;
  51 : 27D;
  52 : 27F;
  53 : 280;
  54 : 282;
  55 : 283;
  56 : 285;
  57 : 286;
  58 : 288;
  59 : 289;
  5A : 28B;
  5B : 28C;
  5C : 28E;
  5D : 28F;
  5E : 291;
  5F : 292;
  60 : 294;
  61 : 295;
  62 : 297;
  63 : 298;
  64 : 29A;
  65 : 29B;
  66 : 29D;
  67 : 29E;
  68 : 2A0;
  69 : 2A1;
  6A : 2A3;
  6B : 2A4;
  6C : 2A6;
  6D : 2A7;
  6E : 2A9;
  6F : 2AA;
  70 : 2AC;
  71 : 2AD;
  72 : 2AF;
  73 : 2B0;
  74 : 2B2;
  75 : 2B3;
  76 : 2B5;
  77 : 2B6;
  78 : 2B8;
  79 : 2B9;
  7A : 2BB;
  7B : 2BC;
  7C : 2BD;
  7D : 2BF;
  7E : 2C0;
  7F : 2C2;
  80 : 2C3;
  81 : 2C5;
  82 : 2C6;
  83 : 2C8;
  84 : 2C9;
  85 : 2CA;
  86 : 2CC;
  87 : 2CD;
  88 : 2CF;
  89 : 2D0;
  8A : 2D2;
  8B : 2D3;
  8C : 2D5;
  8D : 2D6;
  8E : 2D7;
  8F : 2D9;
  90 : 2DA;
  91 : 2DC;
  92 : 2DD;
  93 : 2DE;
  94 : 2E0;
  95 : 2E1;
  96 : 2E3;
  97 : 2E4;
  98 : 2E5;
  99 : 2E7;
  9A : 2E8;
  9B : 2EA;
  9C : 2EB;
  9D : 2EC;
  9E : 2EE;
  9F : 2EF;
  A0 : 2F1;
  A1 : 2F2;
  A2 : 2F3;
  A3 : 2F5;
  A4 : 2F6;
  A5 : 2F8;
  A6 : 2F9;
  A7 : 2FA;
  A8 : 2FC;
  A9 : 2FD;
  AA : 2FE;
  AB : 300;
  AC : 301;
  AD : 302;
  AE : 304;
  AF : 305;
  B0 : 306;
  B1 : 308;
  B2 : 309;
  B3 : 30A;
  B4 : 30C;
  B5 : 30D;
  B6 : 30E;
  B7 : 310;
  B8 : 311;
  B9 : 312;
  BA : 314;
  BB : 315;
  BC : 316;
  BD : 318;
  BE : 319;
  BF : 31A;
  C0 : 31C;
  C1 : 31D;
  C2 : 31E;
  C3 : 320;
  C4 : 321;
  C5 : 322;
  C6 : 323;
  C7 : 325;
  C8 : 326;
  C9 : 327;
  CA : 329;
  CB : 32A;
  CC : 32B;
  CD : 32C;
  CE : 32E;
  CF : 32F;
  D0 : 330;
  D1 : 331;
  D2 : 333;
  D3 : 334;
  D4 : 335;
  D5 : 336;
  D6 : 338;
  D7 : 339;
  D8 : 33A;
  D9 : 33B;
  DA : 33D;
  DB : 33E;
  DC : 33F;
  DD : 340;
  DE : 342;
  DF : 343;
  E0 : 344;
  E1 : 345;
  E2 : 346;
  E3 : 348;
  E4 : 349;
  E5 : 34A;
  E6 : 34B;
  E7 : 34C;
  E8 : 34E;
  E9 : 34F;
  EA : 350;
  EB : 351;
  EC : 352;
  ED : 353;
  EE : 355;
  EF : 356;
  F0 : 357;
  F1 : 358;
  F2 : 359;
  F3 : 35A;
  F4 : 35C;
  F5 : 35D;
  F6 : 35E;
  F7 : 35F;
  F8 : 360;
  F9 : 361;
  FA : 362;
  FB : 364;
  FC : 365;
  FD : 366;
  FE : 367;
  FF : 368;
  100 : 369;
  101 : 36A;
  102 : 36B;
  103 : 36C;
  104 : 36E;
  105 : 36F;
  106 : 370;
  107 : 371;
  108 : 372;
  109 : 373;
  10A : 374;
  10B : 375;
  10C : 376;
  10D : 377;
  10E : 378;
  10F : 379;
  110 : 37A;
  111 : 37C;
  112 : 37D;
  113 : 37E;
  114 : 37F;
  115 : 380;
  116 : 381;
  117 : 382;
  118 : 383;
  119 : 384;
  11A : 385;
  11B : 386;
  11C : 387;
  11D : 388;
  11E : 389;
  11F : 38A;
  120 : 38B;
  121 : 38C;
  122 : 38D;
  123 : 38E;
  124 : 38F;
  125 : 390;
  126 : 391;
  127 : 392;
  128 : 393;
  129 : 394;
  12A : 395;
  12B : 396;
  12C : 397;
  12D : 398;
  12E : 398;
  12F : 399;
  130 : 39A;
  131 : 39B;
  132 : 39C;
  133 : 39D;
  134 : 39E;
  135 : 39F;
  136 : 3A0;
  137 : 3A1;
  138 : 3A2;
  139 : 3A3;
  13A : 3A3;
  13B : 3A4;
  13C : 3A5;
  13D : 3A6;
  13E : 3A7;
  13F : 3A8;
  140 : 3A9;
  141 : 3AA;
  142 : 3AB;
  143 : 3AB;
  144 : 3AC;
  145 : 3AD;
  146 : 3AE;
  147 : 3AF;
  148 : 3B0;
  149 : 3B0;
  14A : 3B1;
  14B : 3B2;
  14C : 3B3;
  14D : 3B4;
  14E : 3B5;
  14F : 3B5;
  150 : 3B6;
  151 : 3B7;
  152 : 3B8;
  153 : 3B9;
  154 : 3B9;
  155 : 3BA;
  156 : 3BB;
  157 : 3BC;
  158 : 3BD;
  159 : 3BD;
  15A : 3BE;
  15B : 3BF;
  15C : 3C0;
  15D : 3C0;
  15E : 3C1;
  15F : 3C2;
  160 : 3C3;
  161 : 3C3;
  162 : 3C4;
  163 : 3C5;
  164 : 3C6;
  165 : 3C6;
  166 : 3C7;
  167 : 3C8;
  168 : 3C8;
  169 : 3C9;
  16A : 3CA;
  16B : 3CA;
  16C : 3CB;
  16D : 3CC;
  16E : 3CD;
  16F : 3CD;
  170 : 3CE;
  171 : 3CF;
  172 : 3CF;
  173 : 3D0;
  174 : 3D1;
  175 : 3D1;
  176 : 3D2;
  177 : 3D2;
  178 : 3D3;
  179 : 3D4;
  17A : 3D4;
  17B : 3D5;
  17C : 3D6;
  17D : 3D6;
  17E : 3D7;
  17F : 3D7;
  180 : 3D8;
  181 : 3D9;
  182 : 3D9;
  183 : 3DA;
  184 : 3DA;
  185 : 3DB;
  186 : 3DC;
  187 : 3DC;
  188 : 3DD;
  189 : 3DD;
  18A : 3DE;
  18B : 3DE;
  18C : 3DF;
  18D : 3DF;
  18E : 3E0;
  18F : 3E1;
  190 : 3E1;
  191 : 3E2;
  192 : 3E2;
  193 : 3E3;
  194 : 3E3;
  195 : 3E4;
  196 : 3E4;
  197 : 3E5;
  198 : 3E5;
  199 : 3E6;
  19A : 3E6;
  19B : 3E7;
  19C : 3E7;
  19D : 3E8;
  19E : 3E8;
  19F : 3E9;
  1A0 : 3E9;
  1A1 : 3E9;
  1A2 : 3EA;
  1A3 : 3EA;
  1A4 : 3EB;
  1A5 : 3EB;
  1A6 : 3EC;
  1A7 : 3EC;
  1A8 : 3EC;
  1A9 : 3ED;
  1AA : 3ED;
  1AB : 3EE;
  1AC : 3EE;
  1AD : 3EF;
  1AE : 3EF;
  1AF : 3EF;
  1B0 : 3F0;
  1B1 : 3F0;
  1B2 : 3F0;
  1B3 : 3F1;
  1B4 : 3F1;
  1B5 : 3F2;
  1B6 : 3F2;
  1B7 : 3F2;
  1B8 : 3F3;
  1B9 : 3F3;
  1BA : 3F3;
  1BB : 3F4;
  1BC : 3F4;
  1BD : 3F4;
  1BE : 3F5;
  1BF : 3F5;
  1C0 : 3F5;
  1C1 : 3F5;
  1C2 : 3F6;
  1C3 : 3F6;
  1C4 : 3F6;
  1C5 : 3F7;
  1C6 : 3F7;
  1C7 : 3F7;
  1C8 : 3F7;
  1C9 : 3F8;
  1CA : 3F8;
  1CB : 3F8;
  1CC : 3F9;
  1CD : 3F9;
  1CE : 3F9;
  1CF : 3F9;
  1D0 : 3F9;
  1D1 : 3FA;
  1D2 : 3FA;
  1D3 : 3FA;
  1D4 : 3FA;
  1D5 : 3FB;
  1D6 : 3FB;
  1D7 : 3FB;
  1D8 : 3FB;
  1D9 : 3FB;
  1DA : 3FC;
  1DB : 3FC;
  1DC : 3FC;
  1DD : 3FC;
  1DE : 3FC;
  1DF : 3FC;
  1E0 : 3FD;
  1E1 : 3FD;
  1E2 : 3FD;
  1E3 : 3FD;
  1E4 : 3FD;
  1E5 : 3FD;
  1E6 : 3FD;
  1E7 : 3FD;
  1E8 : 3FE;
  1E9 : 3FE;
  1EA : 3FE;
  1EB : 3FE;
  1EC : 3FE;
  1ED : 3FE;
  1EE : 3FE;
  1EF : 3FE;
  1F0 : 3FE;
  1F1 : 3FE;
  1F2 : 3FF;
  1F3 : 3FF;
  1F4 : 3FF;
  1F5 : 3FF;
  1F6 : 3FF;
  1F7 : 3FF;
  1F8 : 3FF;
  1F9 : 3FF;
  1FA : 3FF;
  1FB : 3FF;
  1FC : 3FF;
  1FD : 3FF;
  1FE : 3FF;
  1FF : 3FF;
  200 : 3FF;
  201 : 3FF;
  202 : 3FF;
  203 : 3FF;
  204 : 3FF;
  205 : 3FF;
  206 : 3FF;
  207 : 3FF;
  208 : 3FF;
  209 : 3FF;
  20A : 3FF;
  20B : 3FF;
  20C : 3FF;
  20D : 3FF;
  20E : 3FF;
  20F : 3FE;
  210 : 3FE;
  211 : 3FE;
  212 : 3FE;
  213 : 3FE;
  214 : 3FE;
  215 : 3FE;
  216 : 3FE;
  217 : 3FE;
  218 : 3FE;
  219 : 3FD;
  21A : 3FD;
  21B : 3FD;
  21C : 3FD;
  21D : 3FD;
  21E : 3FD;
  21F : 3FD;
  220 : 3FD;
  221 : 3FC;
  222 : 3FC;
  223 : 3FC;
  224 : 3FC;
  225 : 3FC;
  226 : 3FC;
  227 : 3FB;
  228 : 3FB;
  229 : 3FB;
  22A : 3FB;
  22B : 3FB;
  22C : 3FA;
  22D : 3FA;
  22E : 3FA;
  22F : 3FA;
  230 : 3F9;
  231 : 3F9;
  232 : 3F9;
  233 : 3F9;
  234 : 3F9;
  235 : 3F8;
  236 : 3F8;
  237 : 3F8;
  238 : 3F7;
  239 : 3F7;
  23A : 3F7;
  23B : 3F7;
  23C : 3F6;
  23D : 3F6;
  23E : 3F6;
  23F : 3F5;
  240 : 3F5;
  241 : 3F5;
  242 : 3F5;
  243 : 3F4;
  244 : 3F4;
  245 : 3F4;
  246 : 3F3;
  247 : 3F3;
  248 : 3F3;
  249 : 3F2;
  24A : 3F2;
  24B : 3F2;
  24C : 3F1;
  24D : 3F1;
  24E : 3F0;
  24F : 3F0;
  250 : 3F0;
  251 : 3EF;
  252 : 3EF;
  253 : 3EF;
  254 : 3EE;
  255 : 3EE;
  256 : 3ED;
  257 : 3ED;
  258 : 3EC;
  259 : 3EC;
  25A : 3EC;
  25B : 3EB;
  25C : 3EB;
  25D : 3EA;
  25E : 3EA;
  25F : 3E9;
  260 : 3E9;
  261 : 3E9;
  262 : 3E8;
  263 : 3E8;
  264 : 3E7;
  265 : 3E7;
  266 : 3E6;
  267 : 3E6;
  268 : 3E5;
  269 : 3E5;
  26A : 3E4;
  26B : 3E4;
  26C : 3E3;
  26D : 3E3;
  26E : 3E2;
  26F : 3E2;
  270 : 3E1;
  271 : 3E1;
  272 : 3E0;
  273 : 3DF;
  274 : 3DF;
  275 : 3DE;
  276 : 3DE;
  277 : 3DD;
  278 : 3DD;
  279 : 3DC;
  27A : 3DC;
  27B : 3DB;
  27C : 3DA;
  27D : 3DA;
  27E : 3D9;
  27F : 3D9;
  280 : 3D8;
  281 : 3D7;
  282 : 3D7;
  283 : 3D6;
  284 : 3D6;
  285 : 3D5;
  286 : 3D4;
  287 : 3D4;
  288 : 3D3;
  289 : 3D2;
  28A : 3D2;
  28B : 3D1;
  28C : 3D1;
  28D : 3D0;
  28E : 3CF;
  28F : 3CF;
  290 : 3CE;
  291 : 3CD;
  292 : 3CD;
  293 : 3CC;
  294 : 3CB;
  295 : 3CA;
  296 : 3CA;
  297 : 3C9;
  298 : 3C8;
  299 : 3C8;
  29A : 3C7;
  29B : 3C6;
  29C : 3C6;
  29D : 3C5;
  29E : 3C4;
  29F : 3C3;
  2A0 : 3C3;
  2A1 : 3C2;
  2A2 : 3C1;
  2A3 : 3C0;
  2A4 : 3C0;
  2A5 : 3BF;
  2A6 : 3BE;
  2A7 : 3BD;
  2A8 : 3BD;
  2A9 : 3BC;
  2AA : 3BB;
  2AB : 3BA;
  2AC : 3B9;
  2AD : 3B9;
  2AE : 3B8;
  2AF : 3B7;
  2B0 : 3B6;
  2B1 : 3B5;
  2B2 : 3B5;
  2B3 : 3B4;
  2B4 : 3B3;
  2B5 : 3B2;
  2B6 : 3B1;
  2B7 : 3B0;
  2B8 : 3B0;
  2B9 : 3AF;
  2BA : 3AE;
  2BB : 3AD;
  2BC : 3AC;
  2BD : 3AB;
  2BE : 3AB;
  2BF : 3AA;
  2C0 : 3A9;
  2C1 : 3A8;
  2C2 : 3A7;
  2C3 : 3A6;
  2C4 : 3A5;
  2C5 : 3A4;
  2C6 : 3A3;
  2C7 : 3A3;
  2C8 : 3A2;
  2C9 : 3A1;
  2CA : 3A0;
  2CB : 39F;
  2CC : 39E;
  2CD : 39D;
  2CE : 39C;
  2CF : 39B;
  2D0 : 39A;
  2D1 : 399;
  2D2 : 398;
  2D3 : 398;
  2D4 : 397;
  2D5 : 396;
  2D6 : 395;
  2D7 : 394;
  2D8 : 393;
  2D9 : 392;
  2DA : 391;
  2DB : 390;
  2DC : 38F;
  2DD : 38E;
  2DE : 38D;
  2DF : 38C;
  2E0 : 38B;
  2E1 : 38A;
  2E2 : 389;
  2E3 : 388;
  2E4 : 387;
  2E5 : 386;
  2E6 : 385;
  2E7 : 384;
  2E8 : 383;
  2E9 : 382;
  2EA : 381;
  2EB : 380;
  2EC : 37F;
  2ED : 37E;
  2EE : 37D;
  2EF : 37C;
  2F0 : 37A;
  2F1 : 379;
  2F2 : 378;
  2F3 : 377;
  2F4 : 376;
  2F5 : 375;
  2F6 : 374;
  2F7 : 373;
  2F8 : 372;
  2F9 : 371;
  2FA : 370;
  2FB : 36F;
  2FC : 36E;
  2FD : 36C;
  2FE : 36B;
  2FF : 36A;
  300 : 369;
  301 : 368;
  302 : 367;
  303 : 366;
  304 : 365;
  305 : 364;
  306 : 362;
  307 : 361;
  308 : 360;
  309 : 35F;
  30A : 35E;
  30B : 35D;
  30C : 35C;
  30D : 35A;
  30E : 359;
  30F : 358;
  310 : 357;
  311 : 356;
  312 : 355;
  313 : 353;
  314 : 352;
  315 : 351;
  316 : 350;
  317 : 34F;
  318 : 34E;
  319 : 34C;
  31A : 34B;
  31B : 34A;
  31C : 349;
  31D : 348;
  31E : 346;
  31F : 345;
  320 : 344;
  321 : 343;
  322 : 342;
  323 : 340;
  324 : 33F;
  325 : 33E;
  326 : 33D;
  327 : 33B;
  328 : 33A;
  329 : 339;
  32A : 338;
  32B : 336;
  32C : 335;
  32D : 334;
  32E : 333;
  32F : 331;
  330 : 330;
  331 : 32F;
  332 : 32E;
  333 : 32C;
  334 : 32B;
  335 : 32A;
  336 : 329;
  337 : 327;
  338 : 326;
  339 : 325;
  33A : 323;
  33B : 322;
  33C : 321;
  33D : 320;
  33E : 31E;
  33F : 31D;
  340 : 31C;
  341 : 31A;
  342 : 319;
  343 : 318;
  344 : 316;
  345 : 315;
  346 : 314;
  347 : 312;
  348 : 311;
  349 : 310;
  34A : 30E;
  34B : 30D;
  34C : 30C;
  34D : 30A;
  34E : 309;
  34F : 308;
  350 : 306;
  351 : 305;
  352 : 304;
  353 : 302;
  354 : 301;
  355 : 300;
  356 : 2FE;
  357 : 2FD;
  358 : 2FC;
  359 : 2FA;
  35A : 2F9;
  35B : 2F8;
  35C : 2F6;
  35D : 2F5;
  35E : 2F3;
  35F : 2F2;
  360 : 2F1;
  361 : 2EF;
  362 : 2EE;
  363 : 2EC;
  364 : 2EB;
  365 : 2EA;
  366 : 2E8;
  367 : 2E7;
  368 : 2E5;
  369 : 2E4;
  36A : 2E3;
  36B : 2E1;
  36C : 2E0;
  36D : 2DE;
  36E : 2DD;
  36F : 2DC;
  370 : 2DA;
  371 : 2D9;
  372 : 2D7;
  373 : 2D6;
  374 : 2D5;
  375 : 2D3;
  376 : 2D2;
  377 : 2D0;
  378 : 2CF;
  379 : 2CD;
  37A : 2CC;
  37B : 2CA;
  37C : 2C9;
  37D : 2C8;
  37E : 2C6;
  37F : 2C5;
  380 : 2C3;
  381 : 2C2;
  382 : 2C0;
  383 : 2BF;
  384 : 2BD;
  385 : 2BC;
  386 : 2BB;
  387 : 2B9;
  388 : 2B8;
  389 : 2B6;
  38A : 2B5;
  38B : 2B3;
  38C : 2B2;
  38D : 2B0;
  38E : 2AF;
  38F : 2AD;
  390 : 2AC;
  391 : 2AA;
  392 : 2A9;
  393 : 2A7;
  394 : 2A6;
  395 : 2A4;
  396 : 2A3;
  397 : 2A1;
  398 : 2A0;
  399 : 29E;
  39A : 29D;
  39B : 29B;
  39C : 29A;
  39D : 298;
  39E : 297;
  39F : 295;
  3A0 : 294;
  3A1 : 292;
  3A2 : 291;
  3A3 : 28F;
  3A4 : 28E;
  3A5 : 28C;
  3A6 : 28B;
  3A7 : 289;
  3A8 : 288;
  3A9 : 286;
  3AA : 285;
  3AB : 283;
  3AC : 282;
  3AD : 280;
  3AE : 27F;
  3AF : 27D;
  3B0 : 27C;
  3B1 : 27A;
  3B2 : 279;
  3B3 : 277;
  3B4 : 276;
  3B5 : 274;
  3B6 : 273;
  3B7 : 271;
  3B8 : 270;
  3B9 : 26E;
  3BA : 26D;
  3BB : 26B;
  3BC : 269;
  3BD : 268;
  3BE : 266;
  3BF : 265;
  3C0 : 263;
  3C1 : 262;
  3C2 : 260;
  3C3 : 25F;
  3C4 : 25D;
  3C5 : 25C;
  3C6 : 25A;
  3C7 : 258;
  3C8 : 257;
  3C9 : 255;
  3CA : 254;
  3CB : 252;
  3CC : 251;
  3CD : 24F;
  3CE : 24E;
  3CF : 24C;
  3D0 : 24B;
  3D1 : 249;
  3D2 : 247;
  3D3 : 246;
  3D4 : 244;
  3D5 : 243;
  3D6 : 241;
  3D7 : 240;
  3D8 : 23E;
  3D9 : 23D;
  3DA : 23B;
  3DB : 239;
  3DC : 238;
  3DD : 236;
  3DE : 235;
  3DF : 233;
  3E0 : 232;
  3E1 : 230;
  3E2 : 22F;
  3E3 : 22D;
  3E4 : 22B;
  3E5 : 22A;
  3E6 : 228;
  3E7 : 227;
  3E8 : 225;
  3E9 : 224;
  3EA : 222;
  3EB : 220;
  3EC : 21F;
  3ED : 21D;
  3EE : 21C;
  3EF : 21A;
  3F0 : 219;
  3F1 : 217;
  3F2 : 215;
  3F3 : 214;
  3F4 : 212;
  3F5 : 211;
  3F6 : 20F;
  3F7 : 20E;
  3F8 : 20C;
  3F9 : 20A;
  3FA : 209;
  3FB : 207;
  3FC : 206;
  3FD : 204;
  3FE : 203;
  3FF : 201;
  400 : 200;
  401 : 1FE;
  402 : 1FC;
  403 : 1FB;
  404 : 1F9;
  405 : 1F8;
  406 : 1F6;
  407 : 1F5;
  408 : 1F3;
  409 : 1F1;
  40A : 1F0;
  40B : 1EE;
  40C : 1ED;
  40D : 1EB;
  40E : 1EA;
  40F : 1E8;
  410 : 1E6;
  411 : 1E5;
  412 : 1E3;
  413 : 1E2;
  414 : 1E0;
  415 : 1DF;
  416 : 1DD;
  417 : 1DB;
  418 : 1DA;
  419 : 1D8;
  41A : 1D7;
  41B : 1D5;
  41C : 1D4;
  41D : 1D2;
  41E : 1D0;
  41F : 1CF;
  420 : 1CD;
  421 : 1CC;
  422 : 1CA;
  423 : 1C9;
  424 : 1C7;
  425 : 1C6;
  426 : 1C4;
  427 : 1C2;
  428 : 1C1;
  429 : 1BF;
  42A : 1BE;
  42B : 1BC;
  42C : 1BB;
  42D : 1B9;
  42E : 1B8;
  42F : 1B6;
  430 : 1B4;
  431 : 1B3;
  432 : 1B1;
  433 : 1B0;
  434 : 1AE;
  435 : 1AD;
  436 : 1AB;
  437 : 1AA;
  438 : 1A8;
  439 : 1A7;
  43A : 1A5;
  43B : 1A3;
  43C : 1A2;
  43D : 1A0;
  43E : 19F;
  43F : 19D;
  440 : 19C;
  441 : 19A;
  442 : 199;
  443 : 197;
  444 : 196;
  445 : 194;
  446 : 192;
  447 : 191;
  448 : 18F;
  449 : 18E;
  44A : 18C;
  44B : 18B;
  44C : 189;
  44D : 188;
  44E : 186;
  44F : 185;
  450 : 183;
  451 : 182;
  452 : 180;
  453 : 17F;
  454 : 17D;
  455 : 17C;
  456 : 17A;
  457 : 179;
  458 : 177;
  459 : 176;
  45A : 174;
  45B : 173;
  45C : 171;
  45D : 170;
  45E : 16E;
  45F : 16D;
  460 : 16B;
  461 : 16A;
  462 : 168;
  463 : 167;
  464 : 165;
  465 : 164;
  466 : 162;
  467 : 161;
  468 : 15F;
  469 : 15E;
  46A : 15C;
  46B : 15B;
  46C : 159;
  46D : 158;
  46E : 156;
  46F : 155;
  470 : 153;
  471 : 152;
  472 : 150;
  473 : 14F;
  474 : 14D;
  475 : 14C;
  476 : 14A;
  477 : 149;
  478 : 147;
  479 : 146;
  47A : 144;
  47B : 143;
  47C : 142;
  47D : 140;
  47E : 13F;
  47F : 13D;
  480 : 13C;
  481 : 13A;
  482 : 139;
  483 : 137;
  484 : 136;
  485 : 135;
  486 : 133;
  487 : 132;
  488 : 130;
  489 : 12F;
  48A : 12D;
  48B : 12C;
  48C : 12A;
  48D : 129;
  48E : 128;
  48F : 126;
  490 : 125;
  491 : 123;
  492 : 122;
  493 : 121;
  494 : 11F;
  495 : 11E;
  496 : 11C;
  497 : 11B;
  498 : 11A;
  499 : 118;
  49A : 117;
  49B : 115;
  49C : 114;
  49D : 113;
  49E : 111;
  49F : 110;
  4A0 : 10E;
  4A1 : 10D;
  4A2 : 10C;
  4A3 : 10A;
  4A4 : 109;
  4A5 : 107;
  4A6 : 106;
  4A7 : 105;
  4A8 : 103;
  4A9 : 102;
  4AA : 101;
  4AB : 0FF;
  4AC : 0FE;
  4AD : 0FD;
  4AE : 0FB;
  4AF : 0FA;
  4B0 : 0F9;
  4B1 : 0F7;
  4B2 : 0F6;
  4B3 : 0F5;
  4B4 : 0F3;
  4B5 : 0F2;
  4B6 : 0F1;
  4B7 : 0EF;
  4B8 : 0EE;
  4B9 : 0ED;
  4BA : 0EB;
  4BB : 0EA;
  4BC : 0E9;
  4BD : 0E7;
  4BE : 0E6;
  4BF : 0E5;
  4C0 : 0E3;
  4C1 : 0E2;
  4C2 : 0E1;
  4C3 : 0DF;
  4C4 : 0DE;
  4C5 : 0DD;
  4C6 : 0DC;
  4C7 : 0DA;
  4C8 : 0D9;
  4C9 : 0D8;
  4CA : 0D6;
  4CB : 0D5;
  4CC : 0D4;
  4CD : 0D3;
  4CE : 0D1;
  4CF : 0D0;
  4D0 : 0CF;
  4D1 : 0CE;
  4D2 : 0CC;
  4D3 : 0CB;
  4D4 : 0CA;
  4D5 : 0C9;
  4D6 : 0C7;
  4D7 : 0C6;
  4D8 : 0C5;
  4D9 : 0C4;
  4DA : 0C2;
  4DB : 0C1;
  4DC : 0C0;
  4DD : 0BF;
  4DE : 0BD;
  4DF : 0BC;
  4E0 : 0BB;
  4E1 : 0BA;
  4E2 : 0B9;
  4E3 : 0B7;
  4E4 : 0B6;
  4E5 : 0B5;
  4E6 : 0B4;
  4E7 : 0B3;
  4E8 : 0B1;
  4E9 : 0B0;
  4EA : 0AF;
  4EB : 0AE;
  4EC : 0AD;
  4ED : 0AC;
  4EE : 0AA;
  4EF : 0A9;
  4F0 : 0A8;
  4F1 : 0A7;
  4F2 : 0A6;
  4F3 : 0A5;
  4F4 : 0A3;
  4F5 : 0A2;
  4F6 : 0A1;
  4F7 : 0A0;
  4F8 : 09F;
  4F9 : 09E;
  4FA : 09D;
  4FB : 09B;
  4FC : 09A;
  4FD : 099;
  4FE : 098;
  4FF : 097;
  500 : 096;
  501 : 095;
  502 : 094;
  503 : 093;
  504 : 091;
  505 : 090;
  506 : 08F;
  507 : 08E;
  508 : 08D;
  509 : 08C;
  50A : 08B;
  50B : 08A;
  50C : 089;
  50D : 088;
  50E : 087;
  50F : 086;
  510 : 085;
  511 : 083;
  512 : 082;
  513 : 081;
  514 : 080;
  515 : 07F;
  516 : 07E;
  517 : 07D;
  518 : 07C;
  519 : 07B;
  51A : 07A;
  51B : 079;
  51C : 078;
  51D : 077;
  51E : 076;
  51F : 075;
  520 : 074;
  521 : 073;
  522 : 072;
  523 : 071;
  524 : 070;
  525 : 06F;
  526 : 06E;
  527 : 06D;
  528 : 06C;
  529 : 06B;
  52A : 06A;
  52B : 069;
  52C : 068;
  52D : 067;
  52E : 067;
  52F : 066;
  530 : 065;
  531 : 064;
  532 : 063;
  533 : 062;
  534 : 061;
  535 : 060;
  536 : 05F;
  537 : 05E;
  538 : 05D;
  539 : 05C;
  53A : 05C;
  53B : 05B;
  53C : 05A;
  53D : 059;
  53E : 058;
  53F : 057;
  540 : 056;
  541 : 055;
  542 : 054;
  543 : 054;
  544 : 053;
  545 : 052;
  546 : 051;
  547 : 050;
  548 : 04F;
  549 : 04F;
  54A : 04E;
  54B : 04D;
  54C : 04C;
  54D : 04B;
  54E : 04A;
  54F : 04A;
  550 : 049;
  551 : 048;
  552 : 047;
  553 : 046;
  554 : 046;
  555 : 045;
  556 : 044;
  557 : 043;
  558 : 042;
  559 : 042;
  55A : 041;
  55B : 040;
  55C : 03F;
  55D : 03F;
  55E : 03E;
  55F : 03D;
  560 : 03C;
  561 : 03C;
  562 : 03B;
  563 : 03A;
  564 : 039;
  565 : 039;
  566 : 038;
  567 : 037;
  568 : 037;
  569 : 036;
  56A : 035;
  56B : 035;
  56C : 034;
  56D : 033;
  56E : 032;
  56F : 032;
  570 : 031;
  571 : 030;
  572 : 030;
  573 : 02F;
  574 : 02E;
  575 : 02E;
  576 : 02D;
  577 : 02D;
  578 : 02C;
  579 : 02B;
  57A : 02B;
  57B : 02A;
  57C : 029;
  57D : 029;
  57E : 028;
  57F : 028;
  580 : 027;
  581 : 026;
  582 : 026;
  583 : 025;
  584 : 025;
  585 : 024;
  586 : 023;
  587 : 023;
  588 : 022;
  589 : 022;
  58A : 021;
  58B : 021;
  58C : 020;
  58D : 020;
  58E : 01F;
  58F : 01E;
  590 : 01E;
  591 : 01D;
  592 : 01D;
  593 : 01C;
  594 : 01C;
  595 : 01B;
  596 : 01B;
  597 : 01A;
  598 : 01A;
  599 : 019;
  59A : 019;
  59B : 018;
  59C : 018;
  59D : 017;
  59E : 017;
  59F : 016;
  5A0 : 016;
  5A1 : 016;
  5A2 : 015;
  5A3 : 015;
  5A4 : 014;
  5A5 : 014;
  5A6 : 013;
  5A7 : 013;
  5A8 : 013;
  5A9 : 012;
  5AA : 012;
  5AB : 011;
  5AC : 011;
  5AD : 010;
  5AE : 010;
  5AF : 010;
  5B0 : 00F;
  5B1 : 00F;
  5B2 : 00F;
  5B3 : 00E;
  5B4 : 00E;
  5B5 : 00D;
  5B6 : 00D;
  5B7 : 00D;
  5B8 : 00C;
  5B9 : 00C;
  5BA : 00C;
  5BB : 00B;
  5BC : 00B;
  5BD : 00B;
  5BE : 00A;
  5BF : 00A;
  5C0 : 00A;
  5C1 : 00A;
  5C2 : 009;
  5C3 : 009;
  5C4 : 009;
  5C5 : 008;
  5C6 : 008;
  5C7 : 008;
  5C8 : 008;
  5C9 : 007;
  5CA : 007;
  5CB : 007;
  5CC : 006;
  5CD : 006;
  5CE : 006;
  5CF : 006;
  5D0 : 006;
  5D1 : 005;
  5D2 : 005;
  5D3 : 005;
  5D4 : 005;
  5D5 : 004;
  5D6 : 004;
  5D7 : 004;
  5D8 : 004;
  5D9 : 004;
  5DA : 003;
  5DB : 003;
  5DC : 003;
  5DD : 003;
  5DE : 003;
  5DF : 003;
  5E0 : 002;
  5E1 : 002;
  5E2 : 002;
  5E3 : 002;
  5E4 : 002;
  5E5 : 002;
  5E6 : 002;
  5E7 : 002;
  5E8 : 001;
  5E9 : 001;
  5EA : 001;
  5EB : 001;
  5EC : 001;
  5ED : 001;
  5EE : 001;
  5EF : 001;
  5F0 : 001;
  5F1 : 001;
  5F2 : 000;
  5F3 : 000;
  5F4 : 000;
  5F5 : 000;
  5F6 : 000;
  5F7 : 000;
  5F8 : 000;
  5F9 : 000;
  5FA : 000;
  5FB : 000;
  5FC : 000;
  5FD : 000;
  5FE : 000;
  5FF : 000;
  600 : 000;
  601 : 000;
  602 : 000;
  603 : 000;
  604 : 000;
  605 : 000;
  606 : 000;
  607 : 000;
  608 : 000;
  609 : 000;
  60A : 000;
  60B : 000;
  60C : 000;
  60D : 000;
  60E : 000;
  60F : 001;
  610 : 001;
  611 : 001;
  612 : 001;
  613 : 001;
  614 : 001;
  615 : 001;
  616 : 001;
  617 : 001;
  618 : 001;
  619 : 002;
  61A : 002;
  61B : 002;
  61C : 002;
  61D : 002;
  61E : 002;
  61F : 002;
  620 : 002;
  621 : 003;
  622 : 003;
  623 : 003;
  624 : 003;
  625 : 003;
  626 : 003;
  627 : 004;
  628 : 004;
  629 : 004;
  62A : 004;
  62B : 004;
  62C : 005;
  62D : 005;
  62E : 005;
  62F : 005;
  630 : 006;
  631 : 006;
  632 : 006;
  633 : 006;
  634 : 006;
  635 : 007;
  636 : 007;
  637 : 007;
  638 : 008;
  639 : 008;
  63A : 008;
  63B : 008;
  63C : 009;
  63D : 009;
  63E : 009;
  63F : 00A;
  640 : 00A;
  641 : 00A;
  642 : 00A;
  643 : 00B;
  644 : 00B;
  645 : 00B;
  646 : 00C;
  647 : 00C;
  648 : 00C;
  649 : 00D;
  64A : 00D;
  64B : 00D;
  64C : 00E;
  64D : 00E;
  64E : 00F;
  64F : 00F;
  650 : 00F;
  651 : 010;
  652 : 010;
  653 : 010;
  654 : 011;
  655 : 011;
  656 : 012;
  657 : 012;
  658 : 013;
  659 : 013;
  65A : 013;
  65B : 014;
  65C : 014;
  65D : 015;
  65E : 015;
  65F : 016;
  660 : 016;
  661 : 016;
  662 : 017;
  663 : 017;
  664 : 018;
  665 : 018;
  666 : 019;
  667 : 019;
  668 : 01A;
  669 : 01A;
  66A : 01B;
  66B : 01B;
  66C : 01C;
  66D : 01C;
  66E : 01D;
  66F : 01D;
  670 : 01E;
  671 : 01E;
  672 : 01F;
  673 : 020;
  674 : 020;
  675 : 021;
  676 : 021;
  677 : 022;
  678 : 022;
  679 : 023;
  67A : 023;
  67B : 024;
  67C : 025;
  67D : 025;
  67E : 026;
  67F : 026;
  680 : 027;
  681 : 028;
  682 : 028;
  683 : 029;
  684 : 029;
  685 : 02A;
  686 : 02B;
  687 : 02B;
  688 : 02C;
  689 : 02D;
  68A : 02D;
  68B : 02E;
  68C : 02E;
  68D : 02F;
  68E : 030;
  68F : 030;
  690 : 031;
  691 : 032;
  692 : 032;
  693 : 033;
  694 : 034;
  695 : 035;
  696 : 035;
  697 : 036;
  698 : 037;
  699 : 037;
  69A : 038;
  69B : 039;
  69C : 039;
  69D : 03A;
  69E : 03B;
  69F : 03C;
  6A0 : 03C;
  6A1 : 03D;
  6A2 : 03E;
  6A3 : 03F;
  6A4 : 03F;
  6A5 : 040;
  6A6 : 041;
  6A7 : 042;
  6A8 : 042;
  6A9 : 043;
  6AA : 044;
  6AB : 045;
  6AC : 046;
  6AD : 046;
  6AE : 047;
  6AF : 048;
  6B0 : 049;
  6B1 : 04A;
  6B2 : 04A;
  6B3 : 04B;
  6B4 : 04C;
  6B5 : 04D;
  6B6 : 04E;
  6B7 : 04F;
  6B8 : 04F;
  6B9 : 050;
  6BA : 051;
  6BB : 052;
  6BC : 053;
  6BD : 054;
  6BE : 054;
  6BF : 055;
  6C0 : 056;
  6C1 : 057;
  6C2 : 058;
  6C3 : 059;
  6C4 : 05A;
  6C5 : 05B;
  6C6 : 05C;
  6C7 : 05C;
  6C8 : 05D;
  6C9 : 05E;
  6CA : 05F;
  6CB : 060;
  6CC : 061;
  6CD : 062;
  6CE : 063;
  6CF : 064;
  6D0 : 065;
  6D1 : 066;
  6D2 : 067;
  6D3 : 067;
  6D4 : 068;
  6D5 : 069;
  6D6 : 06A;
  6D7 : 06B;
  6D8 : 06C;
  6D9 : 06D;
  6DA : 06E;
  6DB : 06F;
  6DC : 070;
  6DD : 071;
  6DE : 072;
  6DF : 073;
  6E0 : 074;
  6E1 : 075;
  6E2 : 076;
  6E3 : 077;
  6E4 : 078;
  6E5 : 079;
  6E6 : 07A;
  6E7 : 07B;
  6E8 : 07C;
  6E9 : 07D;
  6EA : 07E;
  6EB : 07F;
  6EC : 080;
  6ED : 081;
  6EE : 082;
  6EF : 083;
  6F0 : 085;
  6F1 : 086;
  6F2 : 087;
  6F3 : 088;
  6F4 : 089;
  6F5 : 08A;
  6F6 : 08B;
  6F7 : 08C;
  6F8 : 08D;
  6F9 : 08E;
  6FA : 08F;
  6FB : 090;
  6FC : 091;
  6FD : 093;
  6FE : 094;
  6FF : 095;
  700 : 096;
  701 : 097;
  702 : 098;
  703 : 099;
  704 : 09A;
  705 : 09B;
  706 : 09D;
  707 : 09E;
  708 : 09F;
  709 : 0A0;
  70A : 0A1;
  70B : 0A2;
  70C : 0A3;
  70D : 0A5;
  70E : 0A6;
  70F : 0A7;
  710 : 0A8;
  711 : 0A9;
  712 : 0AA;
  713 : 0AC;
  714 : 0AD;
  715 : 0AE;
  716 : 0AF;
  717 : 0B0;
  718 : 0B1;
  719 : 0B3;
  71A : 0B4;
  71B : 0B5;
  71C : 0B6;
  71D : 0B7;
  71E : 0B9;
  71F : 0BA;
  720 : 0BB;
  721 : 0BC;
  722 : 0BD;
  723 : 0BF;
  724 : 0C0;
  725 : 0C1;
  726 : 0C2;
  727 : 0C4;
  728 : 0C5;
  729 : 0C6;
  72A : 0C7;
  72B : 0C9;
  72C : 0CA;
  72D : 0CB;
  72E : 0CC;
  72F : 0CE;
  730 : 0CF;
  731 : 0D0;
  732 : 0D1;
  733 : 0D3;
  734 : 0D4;
  735 : 0D5;
  736 : 0D6;
  737 : 0D8;
  738 : 0D9;
  739 : 0DA;
  73A : 0DC;
  73B : 0DD;
  73C : 0DE;
  73D : 0DF;
  73E : 0E1;
  73F : 0E2;
  740 : 0E3;
  741 : 0E5;
  742 : 0E6;
  743 : 0E7;
  744 : 0E9;
  745 : 0EA;
  746 : 0EB;
  747 : 0ED;
  748 : 0EE;
  749 : 0EF;
  74A : 0F1;
  74B : 0F2;
  74C : 0F3;
  74D : 0F5;
  74E : 0F6;
  74F : 0F7;
  750 : 0F9;
  751 : 0FA;
  752 : 0FB;
  753 : 0FD;
  754 : 0FE;
  755 : 0FF;
  756 : 101;
  757 : 102;
  758 : 103;
  759 : 105;
  75A : 106;
  75B : 107;
  75C : 109;
  75D : 10A;
  75E : 10C;
  75F : 10D;
  760 : 10E;
  761 : 110;
  762 : 111;
  763 : 113;
  764 : 114;
  765 : 115;
  766 : 117;
  767 : 118;
  768 : 11A;
  769 : 11B;
  76A : 11C;
  76B : 11E;
  76C : 11F;
  76D : 121;
  76E : 122;
  76F : 123;
  770 : 125;
  771 : 126;
  772 : 128;
  773 : 129;
  774 : 12A;
  775 : 12C;
  776 : 12D;
  777 : 12F;
  778 : 130;
  779 : 132;
  77A : 133;
  77B : 135;
  77C : 136;
  77D : 137;
  77E : 139;
  77F : 13A;
  780 : 13C;
  781 : 13D;
  782 : 13F;
  783 : 140;
  784 : 142;
  785 : 143;
  786 : 144;
  787 : 146;
  788 : 147;
  789 : 149;
  78A : 14A;
  78B : 14C;
  78C : 14D;
  78D : 14F;
  78E : 150;
  78F : 152;
  790 : 153;
  791 : 155;
  792 : 156;
  793 : 158;
  794 : 159;
  795 : 15B;
  796 : 15C;
  797 : 15E;
  798 : 15F;
  799 : 161;
  79A : 162;
  79B : 164;
  79C : 165;
  79D : 167;
  79E : 168;
  79F : 16A;
  7A0 : 16B;
  7A1 : 16D;
  7A2 : 16E;
  7A3 : 170;
  7A4 : 171;
  7A5 : 173;
  7A6 : 174;
  7A7 : 176;
  7A8 : 177;
  7A9 : 179;
  7AA : 17A;
  7AB : 17C;
  7AC : 17D;
  7AD : 17F;
  7AE : 180;
  7AF : 182;
  7B0 : 183;
  7B1 : 185;
  7B2 : 186;
  7B3 : 188;
  7B4 : 189;
  7B5 : 18B;
  7B6 : 18C;
  7B7 : 18E;
  7B8 : 18F;
  7B9 : 191;
  7BA : 192;
  7BB : 194;
  7BC : 196;
  7BD : 197;
  7BE : 199;
  7BF : 19A;
  7C0 : 19C;
  7C1 : 19D;
  7C2 : 19F;
  7C3 : 1A0;
  7C4 : 1A2;
  7C5 : 1A3;
  7C6 : 1A5;
  7C7 : 1A7;
  7C8 : 1A8;
  7C9 : 1AA;
  7CA : 1AB;
  7CB : 1AD;
  7CC : 1AE;
  7CD : 1B0;
  7CE : 1B1;
  7CF : 1B3;
  7D0 : 1B4;
  7D1 : 1B6;
  7D2 : 1B8;
  7D3 : 1B9;
  7D4 : 1BB;
  7D5 : 1BC;
  7D6 : 1BE;
  7D7 : 1BF;
  7D8 : 1C1;
  7D9 : 1C2;
  7DA : 1C4;
  7DB : 1C6;
  7DC : 1C7;
  7DD : 1C9;
  7DE : 1CA;
  7DF : 1CC;
  7E0 : 1CD;
  7E1 : 1CF;
  7E2 : 1D0;
  7E3 : 1D2;
  7E4 : 1D4;
  7E5 : 1D5;
  7E6 : 1D7;
  7E7 : 1D8;
  7E8 : 1DA;
  7E9 : 1DB;
  7EA : 1DD;
  7EB : 1DF;
  7EC : 1E0;
  7ED : 1E2;
  7EE : 1E3;
  7EF : 1E5;
  7F0 : 1E6;
  7F1 : 1E8;
  7F2 : 1EA;
  7F3 : 1EB;
  7F4 : 1ED;
  7F5 : 1EE;
  7F6 : 1F0;
  7F7 : 1F1;
  7F8 : 1F3;
  7F9 : 1F5;
  7FA : 1F6;
  7FB : 1F8;
  7FC : 1F9;
  7FD : 1FB;
  7FE : 1FC;
  7FF : 1FE;
END;
